<?xml version="1.0" encoding="UTF-8"?>

<!-- generated on 2025-06-16 09:39:25 by Eclipse SUMO netedit Version 1.20.0
<configuration xmlns:xsi="http://www.w3.org/2001/XMLSchema-instance" xsi:noNamespaceSchemaLocation="http://sumo.dlr.de/xsd/neteditConfiguration.xsd">

    <input>
        <sumo-net-file value="D:\project\RL_sumo\highway.net.xml"/>
    </input>

    <output>
        <output-file value="D:\project\RL_sumo\highway.net.xml"/>
    </output>

    <processing>
        <offset.disable-normalization value="true"/>
    </processing>

    <junctions>
        <no-turnarounds value="true"/>
    </junctions>

    <netedit>
        <new-network value="false"/>
    </netedit>

</configuration>
-->

<net version="1.20" junctionCornerDetail="5" limitTurnSpeed="5.50" xmlns:xsi="http://www.w3.org/2001/XMLSchema-instance" xsi:noNamespaceSchemaLocation="http://sumo.dlr.de/xsd/net_file.xsd">

    <location netOffset="0.00,0.00" convBoundary="0.00,0.00,2000.00,200.00" origBoundary="10000000000.00,10000000000.00,-10000000000.00,-10000000000.00" projParameter="!"/>

    <edge id=":J1_0" function="internal">
        <lane id=":J1_0_0" index="0" speed="33.33" length="7.84" shape="993.82,-8.00 1001.66,-8.00"/>
        <lane id=":J1_0_1" index="1" speed="33.33" length="7.84" shape="993.82,-4.80 1001.66,-4.80"/>
        <lane id=":J1_0_2" index="2" speed="33.33" length="7.84" shape="993.82,-1.60 1001.66,-1.60"/>
    </edge>
    <edge id=":J1_3" function="internal">
        <lane id=":J1_3_0" index="0" speed="10.20" length="9.48" shape="995.43,2.30 996.56,0.89 998.44,-1.51 1000.36,-3.79 1001.66,-4.80"/>
        <lane id=":J1_3_1" index="1" speed="9.11" length="7.49" shape="995.43,2.30 997.29,0.60 998.94,-0.62 1000.40,-1.36 1001.66,-1.60"/>
    </edge>

    <edge id="E0" from="J0" to="J1" priority="3">
        <lane id="E0_0" index="0" speed="33.33" length="993.82" shape="0.00,-8.00 993.82,-8.00"/>
        <lane id="E0_1" index="1" speed="33.33" length="993.82" shape="0.00,-4.80 993.82,-4.80"/>
        <lane id="E0_2" index="2" speed="33.33" length="993.82" shape="0.00,-1.60 993.82,-1.60"/>
    </edge>
    <edge id="E1" from="J1" to="J2" priority="3">
        <lane id="E1_0" index="0" speed="33.33" length="998.34" acceleration="1" shape="1001.66,-8.00 2000.00,-8.00"/>
        <lane id="E1_1" index="1" speed="33.33" length="998.34" acceleration="1" shape="1001.66,-4.80 2000.00,-4.80"/>
        <lane id="E1_2" index="2" speed="33.33" length="998.34" shape="1001.66,-1.60 2000.00,-1.60"/>
    </edge>
    <edge id="E_ramp" from="J3" to="J1" priority="2">
        <lane id="E_ramp_0" index="0" speed="16.67" length="277.99" shape="798.87,198.87 995.43,2.30"/>
    </edge>

    <junction id="J0" type="dead_end" x="0.00" y="0.00" incLanes="" intLanes="" shape="0.00,0.00 0.00,-9.60"/>
    <junction id="J1" type="priority" x="1000.00" y="0.00" incLanes="E0_0 E0_1 E0_2 E_ramp_0" intLanes=":J1_0_0 :J1_0_1 :J1_0_2 :J1_3_0 :J1_3_1" shape="1001.66,0.00 1001.66,-9.60 993.82,-9.60 993.82,0.00 994.61,0.13 994.77,0.29 994.77,0.52 994.61,0.81 994.30,1.17 996.57,3.43 998.17,1.58 998.77,0.90 999.45,0.41 1000.36,0.10">
        <request index="0" response="00000" foes="11000" cont="0"/>
        <request index="1" response="00000" foes="11000" cont="0"/>
        <request index="2" response="00000" foes="11000" cont="0"/>
        <request index="3" response="00111" foes="00111" cont="0"/>
        <request index="4" response="00111" foes="00111" cont="0"/>
    </junction>
    <junction id="J2" type="dead_end" x="2000.00" y="0.00" incLanes="E1_0 E1_1 E1_2" intLanes="" shape="2000.00,-9.60 2000.00,0.00"/>
    <junction id="J3" type="dead_end" x="800.00" y="200.00" incLanes="" intLanes="" shape="800.00,200.00 797.74,197.74"/>

    <connection from="E0" to="E1" fromLane="0" toLane="0" via=":J1_0_0" dir="s" state="M"/>
    <connection from="E0" to="E1" fromLane="1" toLane="1" via=":J1_0_1" dir="s" state="M"/>
    <connection from="E0" to="E1" fromLane="2" toLane="2" via=":J1_0_2" dir="s" state="M"/>
    <connection from="E_ramp" to="E1" fromLane="0" toLane="1" via=":J1_3_0" dir="l" state="m"/>
    <connection from="E_ramp" to="E1" fromLane="0" toLane="2" via=":J1_3_1" dir="l" state="m"/>

    <connection from=":J1_0" to="E1" fromLane="0" toLane="0" dir="s" state="M"/>
    <connection from=":J1_0" to="E1" fromLane="1" toLane="1" dir="s" state="M"/>
    <connection from=":J1_0" to="E1" fromLane="2" toLane="2" dir="s" state="M"/>
    <connection from=":J1_3" to="E1" fromLane="0" toLane="1" dir="l" state="M"/>
    <connection from=":J1_3" to="E1" fromLane="1" toLane="2" dir="l" state="M"/>

</net>
